LTspice 24.0.12 for Windows
Circuit: * TL072 OPERATIONAL AMPLIFIER "MACROMODEL" SUBCIRCUIT
Start Time: Sun Dec 21 16:45:17 2025
Fatal Error: No analysis request found.
